# Potential information
units           	real
dimension       	3
boundary        	p p p
atom_style      	full

pair_style      	lj/cut/coul/cut 12.0 12.0
bond_style      	harmonic
angle_style     	harmonic
dihedral_style 		opls
improper_style     	cvff
pair_modify 		mix geometric tail yes
special_bonds   	lj/coul 0.0 0.0 0.0

# Read lammps data file consist of molecular topology and forcefield info
read_data       	BlendAA.txt
  orthogonal box = (0.0000000 0.0000000 0.0000000) to (24.769500 24.769500 24.769500)
  reading atoms ...
  1973 atoms
  scanning bonds ...
  scanning angles ...
  scanning dihedrals ...
  reading bonds ...
  1963 bonds
  reading angles ...
  3906 angles
  reading dihedrals ...
  5769 dihedrals
     4 = max # of 1-2 neighbors
     9 = max # of 1-3 neighbors
    18 = max # of 1-4 neighbors
    22 = max # of special neighbors
neighbor        	2.0 bin
neigh_modify 		delay 0 every 1 check yes page 500000 one 50000

# Define variables
variable        	eqmT equal $T+273.15
variable        	eqmT equal 100+273.15
variable        	eqmP equal 1.0				# Equilibrium pressure [atm]
variable        	nfreq   equal 1000	 		# Calculate averages every this many timesteps
variable        	nrepeat equal 100  			# Number of times to use input values for calculating averages
variable        	nevery  equal 10    		# Use input values every this many timesteps
variable 			rho equal density

# Minimize system at target temperature using the default conjugate gradient method
velocity        	all create 373.15 482648
fix             	min all nve
thermo          	10
thermo_style 		custom step temp press density pxx pyy pzz pxy pxz pyz pe ke etotal evdwl ecoul epair ebond eangle edihed eimp emol etail enthalpy vol
dump            	1 all custom 10 min_w_BlendAA.lammpstrj id mol type x y z
dump            	2 all custom 10 min_u_BlendAA.lammpstrj id mol type xu yu zu
dump_modify     	1 sort id
dump_modify     	2 sort id
minimize        	1.0e-16 1.06e-6 100000 500000
  update every 1 steps, delay 0 steps, check yes
Step Temp Press Density Pxx Pyy Pzz Pxy Pxz Pyz PotEng KinEng TotEng E_vdwl E_coul E_pair E_bond E_angle E_dihed E_impro E_mol E_tail Enthalpy Volume
0       373.15   -1230148.3    1.0000083   -1489527.2   -1327781.7   -873135.96   -128237.05   -217664.16   -102059.29    404069.25    2193.4344    406262.69    10017.619    721.70703    10739.326    357994.16     34654.84    680.92264            0    393329.93   -36.851475    133625.52    15196.785
Loop time of 0.247637 on 112 procs for 174 steps with 1973 atoms

Minimization stats:
  Stopping criterion = linesearch alpha is zero
  Energy initial, next-to-last, final =
  Force two-norm initial, final = 38936.04541021675 186.24913738209978
  Force max component initial, final = 9018.375624831226 23.19582172024336
  Final line search alpha, max atom move = 2.509402840541263e-13 5.820766091346742e-12
  Iterations, force evaluations = 174 272

undump          	1
undump          	2
write_restart   	Min_BlendAA.restart

unfix           	min
reset_timestep  	0
neigh_modify 		delay 0 every 1 check yes page 500000 one 50000

# NVT at high temperature
fix             	nvt1000K all nvt temp 1000.0 1000.0 100.0
thermo				1000
thermo_style 		custom step temp press density pxx pyy pzz pxy pxz pyz pe ke etotal evdwl ecoul epair ebond eangle edihed eimp emol etail enthalpy vol
fix 				thermo_print all print 1000 "$(step) $(temp) $(press) $(density) $(pxx) $(pyy) $(pzz) $(pxy) $(pxz) $(pyz) $(pe) $(ke) $(etotal) $(evdwl) $(ecoul) $(epair) $(ebond) $(eangle) $(edihed) $(eimp) $(emol) $(etail) $(enthalpy) $(vol)" 					append thermoNVT1000K_BlendAA.out screen no title "# step temp press density pxx pyy pzz pxy pxz pyz pe ke etotal evdwl ecoul epair ebond eangle edihed eimp emol etail enthalpy vol"
dump            	1 all custom 1000 NVT1000K_u_BlendAA.lammpstrj id mol type xu yu zu
dump_modify     	1 sort id
run            		250000
Step Temp Press Density Pxx Pyy Pzz Pxy Pxz Pyz PotEng KinEng TotEng E_vdwl E_coul E_pair E_bond E_angle E_dihed E_impro E_mol E_tail Enthalpy Volume
0       373.15    71410.974    1.0000083    67876.665    71036.652    75319.605    8131.6423   -9355.3575    334.22115    7852.9151    2193.4344     10046.35    1535.0888    942.72335    2477.8122    1024.0186    3599.8503    751.23401            0    5375.1029   -36.851475     25873.13    15196.785
Averages over the last 126 of 251 rows, steps 125000 to 250000:
Temp Press Density Pxx Pyy Pzz Pxy Pxz Pyz PotEng KinEng TotEng E_vdwl E_coul E_pair E_bond E_angle E_dihed E_impro E_mol E_tail Enthalpy Volume
999.671 26052.9 1.00001 25977.2 26256 25925.5 -199.932 236.016 51.7123 6152.67 5876.22 12028.9 -456.57 259.343 -197.228 2013.83 3395.2 940.868 0 6349.9 -36.8515 17803 15196.8
Loop time of 137.361 on 112 procs for 250000 steps with 1973 atoms

undump          	1
unfix				nvt1000K
unfix               thermo_print
write_restart   	NVT1000K_BlendAA.restart

# NPT: Isothermal-isobaric ensemble to set the desired pressure; compute average density at that pressure
fix 				NPT all npt temp 373.15 373.15 100.0 iso 1 1 25.0
fix             	dave all ave/time 10 100 1000 v_rho ave running file eqmDensity_BlendAA_T100CP1atm.out
thermo				1000
thermo_style 		custom step temp press density pxx pyy pzz pxy pxz pyz pe ke etotal evdwl ecoul epair ebond eangle edihed eimp emol etail enthalpy vol
fix 				thermo_print all print 1000 "$(step) $(temp) $(press) $(density) $(pxx) $(pyy) $(pzz) $(pxy) $(pxz) $(pyz) $(pe) $(ke) $(etotal) $(evdwl) $(ecoul) $(epair) $(ebond) $(eangle) $(edihed) $(eimp) $(emol) $(etail) $(enthalpy) $(vol)" 					append thermoNPT_BlendAA_T100CP1atm.out screen no title "# step temp press density pxx pyy pzz pxy pxz pyz pe ke etotal evdwl ecoul epair ebond eangle edihed eimp emol etail enthalpy vol"
dump            	1 all custom 1000 NPT_u_BlendAA_T100CP1atm.lammpstrj id mol type xu yu zu
dump            	2 all custom 1000 NPT_w_BlendAA_T100CP1atm.lammpstrj id mol type x y z
dump_modify     	1 sort id
dump_modify     	2 sort id
run					1000000
Step Temp Press Density Pxx Pyy Pzz Pxy Pxz Pyz PotEng KinEng TotEng E_vdwl E_coul E_pair E_bond E_angle E_dihed E_impro E_mol E_tail Enthalpy Volume
250000    994.27252    27783.937    1.0000083    27979.598    28065.936    27306.277    230.35436    2574.3459    2438.8877    5993.2082    5844.4904    11837.699   -469.94214    228.16942   -241.77273    1913.6207     3355.604     965.7562            0    6234.9809   -36.851475    17995.439    15196.785
Averages over the last 501 of 1001 rows, steps 750000 to 1250000:
Temp Press Density Pxx Pyy Pzz Pxy Pxz Pyz PotEng KinEng TotEng E_vdwl E_coul E_pair E_bond E_angle E_dihed E_impro E_mol E_tail Enthalpy Volume
372.893 2.81789 0.787803 140.239 -143.214 11.4289 107.334 -53.7064 -109.64 2586.69 2191.92 4778.61 -698.211 491.285 -206.926 770.154 1321.67 701.791 0 2793.61 -29.0315 4778.41 19293.8
Loop time of 484.932 on 112 procs for 1000000 steps with 1973 atoms

undump          	1
undump          	2
unfix				NPT
unfix               thermo_print
write_restart  		NPT_BlendAA_T100CP1atm.restart

# NVT: Canonical ensemble to deform the box to match increase in P in previous step
variable        	averho equal f_dave
variable        	adjustrho equal (0.798955938245417/0.785251355524504)^(1.0/3.0)
unfix				dave
fix             	NVT all nvt temp 373.15 373.15 100.0
fix             	adjust all deform 1 x scale 1.00578397411356 y scale 1.00578397411356 z scale 1.00578397411356
thermo         		1000
thermo_style 		custom step temp press density pxx pyy pzz pxy pxz pyz pe ke etotal evdwl ecoul epair ebond eangle edihed eimp emol etail enthalpy vol
fix 				thermo_print all print 1000 "$(step) $(temp) $(press) $(density) $(pxx) $(pyy) $(pzz) $(pxy) $(pxz) $(pyz) $(pe) $(ke) $(etotal) $(evdwl) $(ecoul) $(epair) $(ebond) $(eangle) $(edihed) $(eimp) $(emol) $(etail) $(enthalpy) $(vol)" 					append thermoNVT_BlendAA_T100CP1atm.out screen no title "# step temp press density pxx pyy pzz pxy pxz pyz pe ke etotal evdwl ecoul epair ebond eangle edihed eimp emol etail enthalpy vol"
dump            	1 all custom 1000 NVT_u_BlendAA_T100CP1atm.lammpstrj id mol type xu yu zu
dump_modify     	1 sort id
run					500000
Step Temp Press Density Pxx Pyy Pzz Pxy Pxz Pyz PotEng KinEng TotEng E_vdwl E_coul E_pair E_bond E_angle E_dihed E_impro E_mol E_tail Enthalpy Volume
1250000    390.20265    1806.1393   0.79895594    2057.3318    1098.9931     2262.093    276.35713   -1067.9383   -214.80832    2348.2716    2293.6726    4641.9442   -701.15684    292.02384     -409.133    772.52881    1280.6808    704.19504            0    2757.4046   -29.442459    5142.9695    19020.964
Averages over the last 251 of 501 rows, steps 1500000 to 1750000:
Temp Press Density Pxx Pyy Pzz Pxy Pxz Pyz PotEng KinEng TotEng E_vdwl E_coul E_pair E_bond E_angle E_dihed E_impro E_mol E_tail Enthalpy Volume
373.148 111.254 0.788651 176.844 236.516 -79.5973 -177.702 -113.708 90.926 2578.15 2193.42 4771.57 -699.367 485.085 -214.282 770.173 1322.08 700.173 0 2792.43 -29.0627 4802.77 19269.6
Loop time of 222.179 on 112 procs for 500000 steps with 1973 atoms

undump          	1
unfix				NVT
unfix           	adjust
unfix               thermo_print
write_restart  		NVT_BlendAA_T100CP1atm.restart

# NVE: Microcanonical ensemble to explore the configuration space at constant T and V; relax
fix	       			NVE all nve
fix 				thermostat all langevin 373.15 373.15 100.0 39847
thermo          	1000
thermo_style 		custom step temp press density pxx pyy pzz pxy pxz pyz pe ke etotal evdwl ecoul epair ebond eangle edihed eimp emol etail enthalpy vol
fix 				thermo_print all print 1000 "$(step) $(temp) $(press) $(density) $(pxx) $(pyy) $(pzz) $(pxy) $(pxz) $(pyz) $(pe) $(ke) $(etotal) $(evdwl) $(ecoul) $(epair) $(ebond) $(eangle) $(edihed) $(eimp) $(emol) $(etail) $(enthalpy) $(vol)" 					append thermoNVE_BlendAA_T100CP1atm.out screen no title "# step temp press density pxx pyy pzz pxy pxz pyz pe ke etotal evdwl ecoul epair ebond eangle edihed eimp emol etail enthalpy vol"
run             	250000
Step Temp Press Density Pxx Pyy Pzz Pxy Pxz Pyz PotEng KinEng TotEng E_vdwl E_coul E_pair E_bond E_angle E_dihed E_impro E_mol E_tail Enthalpy Volume
1750000    366.14502   -202.06721   0.78525136    282.10946    266.11309   -1154.4242    2729.0266   -1012.8118    534.46547    2612.1917    2152.2581    4764.4498   -684.69441    495.37362   -189.32078    759.58994    1342.9048    699.01778            0    2801.5125   -28.937429    4707.4178    19352.927
Averages over the last 126 of 251 rows, steps 1875000 to 2000000:
Temp Press Density Pxx Pyy Pzz Pxy Pxz Pyz PotEng KinEng TotEng E_vdwl E_coul E_pair E_bond E_angle E_dihed E_impro E_mol E_tail Enthalpy Volume
373.233 -243.652 0.785251 -387.772 -119.62 -223.565 132.078 -26.8625 -49.5516 2555.94 2193.92 4749.86 -698.722 468.034 -230.688 782.566 1304.17 699.894 0 2786.62 -28.9374 4681.09 19352.9
Loop time of 109.06 on 112 procs for 250000 steps with 1973 atoms

unfix           	NVE
unfix 				thermostat
unfix               thermo_print

# Output the state genearted that needed to shear the molecules
write_restart  		state_BlendAA_T100CP1atm.restart

################################# CALL TO START NEXT LOOP #######################################
clear
next            	fluid
jump 				in.eqm
